
Note: Compatibility modes selected: ps


Circuit: * substrate spice library

